tests/fuzzer/corpus_json/21_random_021.json
{
  "version": "1.0",
  "type": "input",
  "is_batch": false,
  "attributes": {},
  "data": {
    "node": [
      {
        "id": 0,
        "u_rated": 110000.0
      },
      {
        "id": 1,
        "u_rated": 110000.0
      },
      {
        "id": 2,
        "u_rated": 110000.0
      },
      {
        "id": 3,
        "u_rated": 110000.0
      }
    ],
    "source": [
      {
        "id": 4,
        "node": 0,
        "status": 1,
        "u_ref": 1.0269999880809442,
        "u_ref_angle": 0.0,
        "sk": 689797947.5251456,
        "rx_ratio": 0.2395502360287256,
        "z01_ratio": 1.0
      },
      {
        "id": 5,
        "node": 3,
        "status": 1,
        "u_ref": 1.0,
        "u_ref_angle": 0.0,
        "sk": 792654094.8644264,
        "rx_ratio": 0.1,
        "z01_ratio": 1.0
      }
    ],
    "line": [
      {
        "id": 6,
        "from_node": 0,
        "to_node": 1,
        "from_status": 1,
        "to_status": 1,
        "r1": 4.039271509767138,
        "x1": 2.5622811981879656,
        "c1": 5.050841534700116e-07,
        "tan1": 0.0,
        "r0": 0.3,
        "x0": 0.3,
        "c0": 1e-09,
        "tan0": 0.0,
        "i_n": 243.69579986124842
      },
      {
        "id": 7,
        "from_node": 1,
        "to_node": 2,
        "from_status": 1,
        "to_status": 1,
        "r1": 0.01590315305148582,
        "x1": 1.855233458160539,
        "c1": 5.853624971821242e-07,
        "tan1": 0.0,
        "r0": 0.3,
        "x0": 0.3,
        "c0": 1e-09,
        "tan0": 0.0,
        "i_n": 78.5721155514782
      },
      {
        "id": 8,
        "from_node": 2,
        "to_node": 3,
        "from_status": 1,
        "to_status": 1,
        "r1": 3.9687551092848254,
        "x1": 1.1612635821660984,
        "c1": 2.3269495139955363e-07,
        "tan1": 0.0,
        "r0": 0.3,
        "x0": 0.3,
        "c0": 1e-09,
        "tan0": 0.0,
        "i_n": 51.91206248467679
      }
    ]
  }
}